<routes>
	<vType id="car1" color="1,.3,.3"/>
	<vType id="car2" color="1,1,1"/>
	<vType id="car3" color=".3,.3,1"/>
	
	<route id="route0" edges="1to2 2to3 3to4 4to5 5to6"/>

	<vehicle depart="10" departLane="0" id="1" route="route0" type="car1" />
	<vehicle depart="20" departLane="0" id="2" route="route0" type="car2" />
	<vehicle depart="40" departLane="0" id="3" route="route0" type="car3" /> 
</routes>
