<?xml version="1.0" encoding="UTF-8"?>

<!-- generated on 7/7/2019 6:22:11 PM by Netedit Version 0.32.0
<?xml version="1.0" encoding="UTF-8"?>

<configuration xmlns:xsi="http://www.w3.org/2001/XMLSchema-instance" xsi:noNamespaceSchemaLocation="http://sumo.dlr.de/xsd/netconvertConfiguration.xsd">

    <input>
        <sumo-net-file value="C:\Users\audre\Documents\cmu2019summer\research\veins-4.7\projects\v2vcom-app1\route1.net.xml"/>
    </input>

    <output>
        <output-file value="C:\Users\audre\Documents\cmu2019summer\research\veins-4.7\projects\v2vcom-app1\route1.net.xml"/>
    </output>

    <processing>
        <no-internal-links value="true"/>
        <no-turnarounds value="true"/>
        <offset.disable-normalization value="true"/>
        <lefthand value="false"/>
        <junctions.corner-detail value="0"/>
        <rectangular-lane-cut value="false"/>
        <walkingareas value="false"/>
    </processing>

</configuration>
-->

<net version="0.27" xmlns:xsi="http://www.w3.org/2001/XMLSchema-instance" xsi:noNamespaceSchemaLocation="http://sumo.dlr.de/xsd/net_file.xsd">

    <location netOffset="0.00,0.00" convBoundary="0.00,-100.00,1000.00,0.00" origBoundary="-10000000000.00,-10000000000.00,10000000000.00,10000000000.00" projParameter="!"/>

    <edge id="1to2" from="1" to="2" priority="1">
        <lane id="1to2_0" index="0" speed="13.89" length="999.18" shape="0.00,-1.65 996.75,-1.65"/>
    </edge>
    <edge id="2to3" from="2" to="3" priority="1">
        <lane id="2to3_0" index="0" speed="13.89" length="48.51" shape="998.35,-3.25 998.35,-46.75"/>
    </edge>
    <edge id="3to4" from="3" to="4" priority="1">
        <lane id="3to4_0" index="0" speed="13.89" length="999.38" shape="996.75,-48.35 -0.05,-48.35"/>
    </edge>
    <edge id="4to5" from="4" to="5" priority="1">
        <lane id="4to5_0" index="0" speed="13.89" length="50.10" shape="-1.65,-49.95 -1.65,-100.05"/>
    </edge>
    <edge id="5to6" from="5" to="6" priority="1">
        <lane id="5to6_0" index="0" speed="13.89" length="1000.05" shape="-0.05,-101.65 1000.00,-101.65"/>
    </edge>

    <junction id="1" type="dead_end" x="0.00" y="0.00" incLanes="" intLanes="" shape="0.00,-0.05 0.00,-3.25"/>
    <junction id="2" type="priority" x="1000.00" y="0.00" incLanes="1to2_0" intLanes="" shape="999.95,-3.25 996.75,-3.25 996.75,-0.05">
        <request index="0" response="0" foes="0"/>
    </junction>
    <junction id="3" type="priority" x="1000.00" y="-50.00" incLanes="2to3_0" intLanes="" shape="996.75,-46.75 999.95,-46.75 996.75,-49.95">
        <request index="0" response="0" foes="0"/>
    </junction>
    <junction id="4" type="priority" x="0.00" y="-50.00" incLanes="3to4_0" intLanes="" shape="-0.05,-46.75 -0.05,-49.95 -3.25,-49.95">
        <request index="0" response="0" foes="0"/>
    </junction>
    <junction id="5" type="priority" x="0.00" y="-100.00" incLanes="4to5_0" intLanes="" shape="-3.25,-100.05 -0.05,-100.05 -0.05,-103.25">
        <request index="0" response="0" foes="0"/>
    </junction>
    <junction id="6" type="dead_end" x="1000.00" y="-100.00" incLanes="5to6_0" intLanes="" shape="1000.00,-103.25 1000.00,-100.05"/>

    <connection from="1to2" to="2to3" fromLane="0" toLane="0" dir="r" state="M"/>
    <connection from="2to3" to="3to4" fromLane="0" toLane="0" dir="r" state="M"/>
    <connection from="3to4" to="4to5" fromLane="0" toLane="0" dir="l" state="M"/>
    <connection from="4to5" to="5to6" fromLane="0" toLane="0" dir="l" state="M"/>

</net>
